PHYSICAL_PROBLEM= EULER
MATH_PROBLEM= DIRECT
RESTART_SOL= NO
WRT_BINARY_RESTART= NO
MACH_NUMBER= 0.8
AOA= 1.25
FREESTREAM_PRESSURE= 101325.0
FREESTREAM_TEMPERATURE= 273.15
GAMMA_VALUE= 1.4
GAS_CONSTANT= 287.87
REF_ORIGIN_MOMENT_X = 0.25
REF_ORIGIN_MOMENT_Y = 0.00
REF_ORIGIN_MOMENT_Z = 0.00
REF_LENGTH= 1.0
REF_AREA= 1.0
REF_DIMENSIONALIZATION= DIMENSIONAL
MARKER_EULER= ( airfoil )
MARKER_FAR= ( farfield )
MARKER_PLOTTING = ( airfoil )
MARKER_MONITORING = ( airfoil )
MARKER_DESIGNING = ( airfoil )
NUM_METHOD_GRAD= WEIGHTED_LEAST_SQUARES
OBJECTIVE_FUNCTION= DRAG
CFL_NUMBER= 4.0
EXT_ITER= 2
LINEAR_SOLVER= FGMRES
LINEAR_SOLVER_PREC= LU_SGS
LINEAR_SOLVER_ERROR= 1E-6
LINEAR_SOLVER_ITER= 5
MGLEVEL= 3
MGCYCLE= W_CYCLE
MG_PRE_SMOOTH= ( 1, 2, 3, 3 )
MG_POST_SMOOTH= ( 0, 0, 0, 0 )
MG_CORRECTION_SMOOTH= ( 0, 0, 0, 0 )
MG_DAMP_RESTRICTION= 1.0
MG_DAMP_PROLONGATION= 1.0
CONV_NUM_METHOD_FLOW= JST
MUSCL_FLOW= YES
SLOPE_LIMITER_FLOW= VENKATAKRISHNAN
JST_SENSOR_COEFF= ( 0.5, 0.02 )
TIME_DISCRE_FLOW= EULER_IMPLICIT
CONV_NUM_METHOD_ADJFLOW= JST
MUSCL_ADJFLOW= YES
SLOPE_LIMITER_ADJFLOW= NONE
CFL_REDUCTION_ADJFLOW= 0.5
TIME_DISCRE_ADJFLOW= EULER_IMPLICIT
%DIRECT_DIFF=DESIGN_VARIABLES
DV_KIND= HICKS_HENNE
DV_MARKER= ( airfoil )
DV_PARAM= ( 0.0, 0.05 )
DV_VALUE= 0.01
DEFORM_LINEAR_SOLVER= FGMRES
DEFORM_LINEAR_SOLVER_PREC= ILU
DEFORM_LINEAR_ITER= 1000
DEFORM_NONLINEAR_ITER= 1
DEFORM_LINEAR_SOLVER_ERROR= 1E-14
DEFORM_CONSOLE_OUTPUT= YES
DEFORM_COEFF = 1E6
DEFORM_STIFFNESS_TYPE= WALL_DISTANCE
DEFORM_LIMIT = 1E6
VISUALIZE_SURFACE_DEF= YES
VISUALIZE_VOLUME_DEF= NO
CONV_CRITERIA= CAUCHY
RESIDUAL_REDUCTION= 6
RESIDUAL_MINVAL= -8
STARTCONV_ITER= 10
CAUCHY_ELEMS= 100
CAUCHY_EPS= 1E-6
CAUCHY_FUNC_FLOW= DRAG
MESH_FILENAME= mesh_NACA0012_inv.su2
MESH_FORMAT= SU2
MESH_OUT_FILENAME= mesh_out.su2
SOLUTION_FLOW_FILENAME= solution_flow.dat
SOLUTION_ADJ_FILENAME= solution_adj.dat
OUTPUT_FORMAT= PARAVIEW
CONV_FILENAME= history
RESTART_FLOW_FILENAME= restart_flow.dat
RESTART_ADJ_FILENAME= restart_adj.dat
VOLUME_FLOW_FILENAME= flow
VOLUME_ADJ_FILENAME= adjoint
GRAD_OBJFUNC_FILENAME= of_grad.dat
SURFACE_FLOW_FILENAME= surface_flow
SURFACE_ADJ_FILENAME= surface_adjoint
WRT_SOL_FREQ= 250
WRT_CON_FREQ= 1
OPT_OBJECTIVE= DRAG * 0.001
OPT_CONSTRAINT= ( LIFT > 0.328188 ) * 0.001; ( MOMENT_Z > 0.034068 ) * 0.001;
DEFINITION_DV= ( 1, 1.0 | airfoil | 0, 0.05 )
%; ( 1, 1.0 | airfoil | 0, 0.10 ); ( 1, 1.0 | airfoil | 0, 0.15 ); ( 1, 1.0 | airfoil | 0, 0.20 ); ( 1, 1.0 | airfoil | 0, 0.25 ); ( 1, 1.0 | airfoil | 0, 0.30 ); ( 1, 1.0 | airfoil | 0, 0.35 ); ( 1, 1.0 | airfoil | 0, 0.40 ); ( 1, 1.0 | airfoil | 0, 0.45 ); ( 1, 1.0 | airfoil | 0, 0.50 ); ( 1, 1.0 | airfoil | 0, 0.55 ); ( 1, 1.0 | airfoil | 0, 0.60 ); ( 1, 1.0 | airfoil | 0, 0.65 ); ( 1, 1.0 | airfoil | 0, 0.70 ); ( 1, 1.0 | airfoil | 0, 0.75 ); ( 1, 1.0 | airfoil | 0, 0.80 ); ( 1, 1.0 | airfoil | 0, 0.85 ); ( 1, 1.0 | airfoil | 0, 0.90 ); ( 1, 1.0 | airfoil | 0, 0.95 ); ( 1, 1.0 | airfoil | 1, 0.05 ); ( 1, 1.0 | airfoil | 1, 0.10 ); ( 1, 1.0 | airfoil | 1, 0.15 ); ( 1, 1.0 | airfoil | 1, 0.20 ); ( 1, 1.0 | airfoil | 1, 0.25 ); ( 1, 1.0 | airfoil | 1, 0.30 ); ( 1, 1.0 | airfoil | 1, 0.35 ); ( 1, 1.0 | airfoil | 1, 0.40 ); ( 1, 1.0 | airfoil | 1, 0.45 ); ( 1, 1.0 | airfoil | 1, 0.50 ); ( 1, 1.0 | airfoil | 1, 0.55 ); ( 1, 1.0 | airfoil | 1, 0.60 ); ( 1, 1.0 | airfoil | 1, 0.65 ); ( 1, 1.0 | airfoil | 1, 0.70 ); ( 1, 1.0 | airfoil | 1, 0.75 ); ( 1, 1.0 | airfoil | 1, 0.80 ); ( 1, 1.0 | airfoil | 1, 0.85 ); ( 1, 1.0 | airfoil | 1, 0.90 ); ( 1, 1.0 | airfoil | 1, 0.95 )
DV_VALUE_NEW= 0.01
DV_VALUE_OLD= 0.01
OPT_ITERATIONS= 100
OPT_ACCURACY= 1e-10
OPT_RELAX_FACTOR= 1.0
OPT_GRADIENT_FACTOR= 1.0
OPT_BOUND_UPPER= 10000000000.0
OPT_BOUND_LOWER= -10000000000.0
OPT_COMBINE_OBJECTIVE= NO
VALUE_OBJFUNC_FILENAME= of_eval.dat
SIDESLIP_ANGLE= 0.0
REYNOLDS_NUMBER= 0.0
TARGET_CL= 0.0
MARKER_OUTLET= (NONE)
MULTIPOINT_WEIGHT= (1.0)
MULTIPOINT_MACH_NUMBER= (0.8)
MULTIPOINT_AOA= (1.25)
MULTIPOINT_SIDESLIP_ANGLE= (0.0)
MULTIPOINT_REYNOLDS_NUMBER= (0.0)
MULTIPOINT_TARGET_CL= (0.0)
MULTIPOINT_FREESTREAM_PRESSURE= (101325.0)
MULTIPOINT_FREESTREAM_TEMPERATURE= (273.15)
MULTIPOINT_OUTLET_VALUE= (0.0)
NUMBER_PART= 1
NZONES= 1
