%%%%%%%%%%%%%%%%%%%%%%%%%%%%%%%%%%%%%%%%%%%%%%%%%%%%%%%%%%%%%%%%%%%%%%%%%%
% SU2 configuration file                                                 %
% Case description: 2D airfoil FSI with radial basis function interp.    %
% Institution: Imperial College London                                   %
% File Version 6.2.0 "Falcon"                                            %
%%%%%%%%%%%%%%%%%%%%%%%%%%%%%%%%%%%%%%%%%%%%%%%%%%%%%%%%%%%%%%%%%%%%%%%%%%
%
% Interface options ---------------------------------------------------- %

KIND_INTERPOLATION = RADIAL_BASIS_FUNCTION
CONSERVATIVE_INTERPOLATION = NO
KIND_RADIAL_BASIS_FUNCTION = WENDLAND_C2
RADIAL_BASIS_FUNCTION_PARAMETER = 0.5
RADIAL_BASIS_FUNCTION_POLYNOMIAL_TERM = YES

INNER_ITER = 1
WRT_BINARY_RESTART=NO
READ_BINARY_RESTART=NO
%
% Physics -------------------------------------------------------------- %
PHYSICAL_PROBLEM= MODAL
MATH_PROBLEM= DIRECT
%
% Boundary conditions -------------------------------------------------- %
MARKER_CLAMPED = ( clamped )
MARKER_CUSTOM= ( wing_s )
%
DYNAMIC_ANALYSIS= YES
%DYNAMIC_METHOD= MODAL_HARMONIC_BALANCE
DYN_TIMESTEP= 0.01
DYN_TIME= 0.1
% Common numerics settings --------------------------------------------- %
REF_DIMENSIONALIZATION= DIMENSIONAL
%
% common flow properties ------------------------------------------------%
FREESTREAM_TEMPERATURE= 257.85  
FREESTREAM_PRESSURE= 100 %4742.50
%
% modal analysis parameters ---------------------------------------------%
% number of modes to be retained and plotted
NUMBER_OF_MODES= 4
%
% Flutter Index
FLUTTER_SPEED_INDEX= 0.5

%
% Flow numerics -------------------------------------------------------- %
CONV_NUM_METHOD_FLOW= JST
JST_SENSOR_COEFF= ( 0.5, 0.02 )
TIME_DISCRE_FLOW= EULER_IMPLICIT
TIME_DISCRE_FEA= RK2
%
% Convergence criteria ------------------------------------------------- %
EXT_ITER= 1
% interaction
FSI_ITER= 1
% if running from scratch this helps a bunch
%RAMP_LOADING= YES
%RAMP_FSI_ITER= 5
BGS_RELAXATION= FIXED_PARAMETER
STAT_RELAX_PARAMETER= 0.7
RESIDUAL_REDUCTION_FSI= 8
RESIDUAL_MINVAL_FSI= -8
% solid
NONLINEAR_FEM_INT_ITER= 30
RESIDUAL_FEM_UTOL= -6.0
RESIDUAL_FEM_RTOL= -6.0
RESIDUAL_FEM_ETOL= -6.0
%
% In\Out --------------------------------------------------------------- %
MESH_FILENAME= meshFEA.su2
MESH_FORMAT= SU2
MULTIZONE_MESH = NO
%
RESTART_SOL= NO
SOLUTION_FLOW_FILENAME= solution_fluid.dat
SOLUTION_STRUCTURE_FILENAME= solution_solid.dat
WRT_SOL_FREQ= 999999
RESTART_FLOW_FILENAME= restart_fluid.dat
RESTART_STRUCTURE_FILENAME= restart_solid.dat
%
OUTPUT_FORMAT= PARAVIEW
VOLUME_FLOW_FILENAME= structure
SURFACE_FLOW_FILENAME= surface_structure
VOLUME_STRUCTURE_FILENAME= solid
VISUALIZE_VOLUME_DEF= YES
DV_MARKER= ( wing_s )
MARKER_MOVING= ( wing_s )
%
WRT_CON_FREQ= 10
CONV_FILENAME= history

